@<TRIPOS>MOLECULE
LIG
 27 28 0 0 0
SMALL
GASTEIGER

@<TRIPOS>ATOM
      1  CZ3       10.3310    8.6180   14.7280 C.ar    1  TRP1       -0.0611
      2  CH2        9.7130    9.8630   14.6500 C.ar    1  TRP1       -0.0598
      3  CZ2        9.3750   10.4250   13.4150 C.ar    1  TRP1       -0.0378
      4  CE2        9.6750    9.6870   12.2640 C.ar    1  TRP1        0.0467
      5  CD2       10.2850    8.4340   12.3080 C.ar    1  TRP1        0.0029
      6  CE3       10.6230    7.8940   13.5670 C.ar    1  TRP1       -0.0523
      7  CG        10.4090    7.9690   10.9590 C.ar    1  TRP1       -0.0204
      8  CD1        9.8970    8.9610   10.1470 C.ar    1  TRP1        0.0060
      9  NE1        9.4690    9.9920   10.9400 N.ar    1  TRP1       -0.3604
     10  HE1        9.0560   10.8530   10.6050 H       1  TRP1        0.1653
     11  CB        10.9650    6.6500   10.5080 C.3     1  TRP1       -0.0001
     12  CA        10.8590    6.4420    8.9890 C.3     1  TRP1        0.1073
     13  N          9.9460    5.3040    8.6970 N.3     1  TRP1       -0.3181
     14  H1        10.4880    4.4400    8.8070 H       1  TRP1        0.1190
     15  H2         9.7350    5.3190    7.6950 H       1  TRP1        0.1190
     16  C         12.2420    6.1540    8.3780 C.2     1  TRP1        0.3220
     17  O         13.0350    7.0280    8.0460 O.2     1  TRP1       -0.2492
     18  OXT       12.5390    4.8390    8.2660 O.3     1  TRP1       -0.4795
     19  HXT       13.2190    4.6430    7.5890 H       1  TRP1        0.2951
     20 H          10.5759    8.2256   15.6505 H       1  TRP1        0.0618
     21 H           9.5009   10.3796   15.5178 H       1  TRP1        0.0618
     22 H           8.9211   11.3498   13.3543 H       1  TRP1        0.0638
     23 H          11.0821    6.9720   13.6309 H       1  TRP1        0.0624
     24 H           9.8455    8.9307    9.1167 H       1  TRP1        0.0810
     25 H          11.9966    6.6012   10.7878 H       1  TRP1        0.0334
     26 H          10.3872    5.8815   10.9776 H       1  TRP1        0.0334
     27 H          10.4701    7.3393    8.5548 H       1  TRP1        0.0577
@<TRIPOS>BOND
     1    19    18    1
     2    15    13    1
     3    17    16    2
     4    18    16    1
     5    16    12    1
     6    13    14    1
     7    13    12    1
     8    12    11    1
     9     8     9   ar
    10     8     7   ar
    11    11     7    1
    12    10     9    1
    13     9     4   ar
    14     7     5   ar
    15     4     5   ar
    16     4     3   ar
    17     5     6   ar
    18     3     2   ar
    19     6     1   ar
    20     2     1   ar
    21     1    20    1
    22     2    21    1
    23     3    22    1
    24     6    23    1
    25     8    24    1
    26    11    25    1
    27    11    26    1
    28    12    27    1
@<TRIPOS>MOLECULE
=
 27 28 0 0 0
SMALL
GASTEIGER

@<TRIPOS>ATOM
      1  CZ3       10.0540    9.1330   11.2750 C.ar    1  TRP1       -0.0611
      2  CH2       10.7470    8.0280   11.7600 C.ar    1  TRP1       -0.0598
      3  CZ2       10.9220    7.8330   13.1330 C.ar    1  TRP1       -0.0378
      4  CE2       10.3690    8.7840   13.9990 C.ar    1  TRP1        0.0467
      5  CD2        9.6610    9.8960   13.5450 C.ar    1  TRP1        0.0029
      6  CE3        9.5070   10.0740   12.1550 C.ar    1  TRP1       -0.0523
      7  CG         9.2230   10.6250   14.6970 C.ar    1  TRP1       -0.0204
      8  CD1        9.6990    9.9480   15.8030 C.ar    1  TRP1        0.0060
      9  NE1       10.3950    8.8500   15.3720 N.ar    1  TRP1       -0.3604
     10  HE1       10.8580    8.1800   15.9720 H       1  TRP1        0.1653
     11  CB         8.3870   11.8710   14.7110 C.3     1  TRP1       -0.0001
     12  CA         9.1990   13.1340   15.0370 C.3     1  TRP1        0.1073
     13  N          9.1390   13.4110   16.4980 N.3     1  TRP1       -0.3181
     14  H1         9.3530   12.5350   16.9860 H       1  TRP1        0.1190
     15  H2         8.1610   13.5820   16.7460 H       1  TRP1        0.1190
     16  C          8.6530   14.3500   14.2670 C.2     1  TRP1        0.3220
     17  O          8.6940   15.4990   14.6910 O.2     1  TRP1       -0.2492
     18  OXT        8.1480   14.0560   13.0470 O.3     1  TRP1       -0.4795
     19  HXT        8.7660   13.5590   12.4720 H       1  TRP1        0.2951
     20 H           9.9423    9.2598   10.2569 H       1  TRP1        0.0618
     21 H          11.1378    7.3418   11.0956 H       1  TRP1        0.0618
     22 H          11.4402    7.0174   13.4953 H       1  TRP1        0.0638
     23 H           8.9949   10.8919   11.7891 H       1  TRP1        0.0624
     24 H           9.5546   10.2230   16.7872 H       1  TRP1        0.0810
     25 H           7.6199   11.7588   15.4485 H       1  TRP1        0.0334
     26 H           7.9811   11.9956   13.7289 H       1  TRP1        0.0334
     27 H          10.2133   12.9648   14.7412 H       1  TRP1        0.0577
@<TRIPOS>BOND
     1     1     2   ar
     2     1     6   ar
     3     2     3   ar
     4     6     5   ar
     5    19    18    1
     6    18    16    1
     7     3     4   ar
     8     5     4   ar
     9     5     7   ar
    10     4     9   ar
    11    16    17    2
    12    16    12    1
    13     7    11    1
    14     7     8   ar
    15    11    12    1
    16    12    13    1
    17     9     8   ar
    18     9    10    1
    19    13    15    1
    20    13    14    1
    21     1    20    1
    22     2    21    1
    23     3    22    1
    24     6    23    1
    25     8    24    1
    26    11    25    1
    27    11    26    1
    28    12    27    1
@<TRIPOS>MOLECULE
=
 27 28 0 0 0
SMALL
GASTEIGER

@<TRIPOS>ATOM
      1  CZ3       11.4590    7.1180   12.1420 C.ar    1  TRP1       -0.0611
      2  CH2       11.2090    7.5200   10.8320 C.ar    1  TRP1       -0.0598
      3  CZ2       10.4410    8.6570   10.5610 C.ar    1  TRP1       -0.0378
      4  CE2        9.9400    9.3760   11.6530 C.ar    1  TRP1        0.0467
      5  CD2       10.1800    9.0050   12.9760 C.ar    1  TRP1        0.0029
      6  CE3       10.9510    7.8500   13.2210 C.ar    1  TRP1       -0.0523
      7  CG         9.5460    9.9760   13.8150 C.ar    1  TRP1       -0.0204
      8  CD1        8.9260   10.8830   12.9790 C.ar    1  TRP1        0.0060
      9  NE1        9.1600   10.5070   11.6830 N.ar    1  TRP1       -0.3604
     10  HE1        8.8150   10.9900   10.8640 H       1  TRP1        0.1653
     11  CB         9.5670   10.0220   15.3150 C.3     1  TRP1       -0.0001
     12  CA         9.9950   11.3900   15.8680 C.3     1  TRP1        0.1073
     13  N         11.0220   11.2080   16.9290 N.3     1  TRP1       -0.3181
     14  H1        11.8770   10.8690   16.4750 H       1  TRP1        0.1190
     15  H2        10.7380   10.4140   17.5100 H       1  TRP1        0.1190
     16  C          8.7890   12.1460   16.4530 C.2     1  TRP1        0.3220
     17  O          7.7810   12.4210   15.8110 O.2     1  TRP1       -0.2492
     18  OXT        8.9090   12.4590   17.7630 O.3     1  TRP1       -0.4795
     19  HXT        8.1050   12.2740   18.2910 H       1  TRP1        0.2951
     20 H          12.0240    6.2726   12.3184 H       1  TRP1        0.0618
     21 H          11.5965    6.9703   10.0492 H       1  TRP1        0.0618
     22 H          10.2505    8.9552    9.5915 H       1  TRP1        0.0638
     23 H          11.1393    7.5467   14.1893 H       1  TRP1        0.0624
     24 H           8.3790   11.7049   13.2796 H       1  TRP1        0.0810
     25 H          10.2531    9.2813   15.6692 H       1  TRP1        0.0334
     26 H           8.5693    9.8375   15.6547 H       1  TRP1        0.0334
     27 H          10.4038   11.9631   15.0621 H       1  TRP1        0.0577
@<TRIPOS>BOND
     1     3     2   ar
     2     3     4   ar
     3     2     1   ar
     4    10     9    1
     5     4     9   ar
     6     4     5   ar
     7     9     8   ar
     8     1     6   ar
     9     5     6   ar
    10     5     7   ar
    11     8     7   ar
    12     7    11    1
    13    11    12    1
    14    17    16    2
    15    12    16    1
    16    12    13    1
    17    16    18    1
    18    14    13    1
    19    13    15    1
    20    18    19    1
    21     1    20    1
    22     2    21    1
    23     3    22    1
    24     6    23    1
    25     8    24    1
    26    11    25    1
    27    11    26    1
    28    12    27    1
@<TRIPOS>MOLECULE
=
 27 28 0 0 0
SMALL
GASTEIGER

@<TRIPOS>ATOM
      1  CZ3       10.3840    8.6280   14.5440 C.ar    1  TRP1       -0.0611
      2  CH2       10.2270    8.7260   13.1640 C.ar    1  TRP1       -0.0598
      3  CZ2        9.5890    9.8270   12.5860 C.ar    1  TRP1       -0.0378
      4  CE2        9.1190   10.8280   13.4450 C.ar    1  TRP1        0.0467
      5  CD2        9.2680   10.7650   14.8300 C.ar    1  TRP1        0.0029
      6  CE3        9.9090    9.6390   15.3880 C.ar    1  TRP1       -0.0523
      7  CG         8.7020   11.9610   15.3770 C.ar    1  TRP1       -0.0204
      8  CD1        8.2100   12.6920   14.3140 C.ar    1  TRP1        0.0060
      9  NE1        8.4550   11.9970   13.1600 N.ar    1  TRP1       -0.3604
     10  HE1        8.1940   12.2990   12.2300 H       1  TRP1        0.1653
     11  CB         8.6680   12.3630   16.8230 C.3     1  TRP1       -0.0001
     12  CA         8.3600   13.8550   17.0240 C.3     1  TRP1        0.1073
     13  N          9.5010   14.5180   17.7110 N.3     1  TRP1       -0.3181
     14  H1         9.1250   15.3250   18.2210 H       1  TRP1        0.1190
     15  H2        10.0910   14.9510   16.9950 H       1  TRP1        0.1190
     16  C          7.0830   14.0420   17.8640 C.2     1  TRP1        0.3220
     17  O          6.8870   15.0040   18.5980 O.2     1  TRP1       -0.2492
     18  OXT        6.1610   13.0660   17.7000 O.3     1  TRP1       -0.4795
     19  HXT        5.2410   13.3970   17.6430 H       1  TRP1        0.2951
     20 H          10.8545    7.8032   14.9481 H       1  TRP1        0.0618
     21 H          10.5879    7.9729   12.5577 H       1  TRP1        0.0618
     22 H           9.4687    9.8996   11.5636 H       1  TRP1        0.0638
     23 H          10.0269    9.5611   16.4103 H       1  TRP1        0.0624
     24 H           7.7376   13.6073   14.3784 H       1  TRP1        0.0810
     25 H           9.6218   12.1500   17.2587 H       1  TRP1        0.0334
     26 H           7.8822   11.8079   17.2913 H       1  TRP1        0.0334
     27 H           8.2084   14.2983   16.0620 H       1  TRP1        0.0577
@<TRIPOS>BOND
     1    10     9    1
     2     3     2   ar
     3     3     4   ar
     4     9     4   ar
     5     9     8   ar
     6     2     1   ar
     7     4     5   ar
     8     8     7   ar
     9     1     6   ar
    10     5     7   ar
    11     5     6   ar
    12     7    11    1
    13    11    12    1
    14    15    13    1
    15    12    13    1
    16    12    16    1
    17    19    18    1
    18    18    16    1
    19    13    14    1
    20    16    17    2
    21     1    20    1
    22     2    21    1
    23     3    22    1
    24     6    23    1
    25     8    24    1
    26    11    25    1
    27    11    26    1
    28    12    27    1
@<TRIPOS>MOLECULE
=
 27 28 0 0 0
SMALL
GASTEIGER

@<TRIPOS>ATOM
      1  CZ3        8.3520   15.2980   14.7380 C.ar    1  TRP1       -0.0611
      2  CH2        7.6760   15.7480   15.8690 C.ar    1  TRP1       -0.0598
      3  CZ2        7.5930   14.9600   17.0210 C.ar    1  TRP1       -0.0378
      4  CE2        8.2190   13.7080   16.9960 C.ar    1  TRP1        0.0467
      5  CD2        8.9110   13.2320   15.8830 C.ar    1  TRP1        0.0029
      6  CE3        8.9730   14.0440   14.7310 C.ar    1  TRP1       -0.0523
      7  CG         9.4390   11.9460   16.2240 C.ar    1  TRP1       -0.0204
      8  CD1        9.0310   11.6760   17.5150 C.ar    1  TRP1        0.0060
      9  NE1        8.2890   12.7350   17.9650 N.ar    1  TRP1       -0.3604
     10  HE1        7.8580   12.8010   18.8780 H       1  TRP1        0.1653
     11  CB        10.2940   11.0650   15.3610 C.3     1  TRP1       -0.0001
     12  CA         9.5000    9.9390   14.6800 C.3     1  TRP1        0.1073
     13  N         10.1320    8.6250   14.9750 N.3     1  TRP1       -0.3181
     14  H1        10.6310    8.7170   15.8660 H       1  TRP1        0.1190
     15  H2        10.8870    8.4800   14.2990 H       1  TRP1        0.1190
     16  C          9.4490   10.1490   13.1560 C.2     1  TRP1        0.3220
     17  O          9.9730    9.3910   12.3470 O.2     1  TRP1       -0.2492
     18  OXT        8.7390   11.2310   12.7650 O.3     1  TRP1       -0.4795
     19  HXT        9.2400   12.0720   12.8120 H       1  TRP1        0.2951
     20 H           8.3955   15.8947   13.8971 H       1  TRP1        0.0618
     21 H           7.2290   16.6781   15.8568 H       1  TRP1        0.0618
     22 H           7.0887   15.2892   17.8591 H       1  TRP1        0.0638
     23 H           9.4724   13.7157   13.8897 H       1  TRP1        0.0624
     24 H           9.2485   10.8208   18.0502 H       1  TRP1        0.0810
     25 H          10.7489   11.6680   14.6032 H       1  TRP1        0.0334
     26 H          11.0222   10.6047   15.9956 H       1  TRP1        0.0334
     27 H           8.5012    9.9546   15.0634 H       1  TRP1        0.0577
@<TRIPOS>BOND
     1    17    16    2
     2    18    19    1
     3    18    16    1
     4    16    12    1
     5    15    13    1
     6    12    13    1
     7    12    11    1
     8     6     1   ar
     9     6     5   ar
    10     1     2   ar
    11    13    14    1
    12    11     7    1
    13     2     3   ar
    14     5     7   ar
    15     5     4   ar
    16     7     8   ar
    17     4     3   ar
    18     4     9   ar
    19     8     9   ar
    20     9    10    1
    21     1    20    1
    22     2    21    1
    23     3    22    1
    24     6    23    1
    25     8    24    1
    26    11    25    1
    27    11    26    1
    28    12    27    1
@<TRIPOS>MOLECULE
=
 27 28 0 0 0
SMALL
GASTEIGER

@<TRIPOS>ATOM
      1  CZ3       10.6340    7.6600   13.5150 C.ar    1  TRP1       -0.0611
      2  CH2       10.2480    8.9940   13.6130 C.ar    1  TRP1       -0.0598
      3  CZ2        9.9360    9.7400   12.4730 C.ar    1  TRP1       -0.0378
      4  CE2       10.0190    9.0950   11.2330 C.ar    1  TRP1        0.0467
      5  CD2       10.3940    7.7580   11.1010 C.ar    1  TRP1        0.0029
      6  CE3       10.7120    7.0310   12.2670 C.ar    1  TRP1       -0.0523
      7  CG        10.3410    7.4340    9.7080 C.ar    1  TRP1       -0.0204
      8  CD1        9.9640    8.5840    9.0440 C.ar    1  TRP1        0.0060
      9  NE1        9.7840    9.5780    9.9680 N.ar    1  TRP1       -0.3604
     10  HE1        9.5120   10.5290    9.7570 H       1  TRP1        0.1653
     11  CB        10.6180    6.0980    9.0830 C.3     1  TRP1       -0.0001
     12  CA         9.8040    5.8540    7.8020 C.3     1  TRP1        0.1073
     13  N          8.9630    4.6370    7.9610 N.3     1  TRP1       -0.3181
     14  H1         9.4380    3.8700    7.4700 H       1  TRP1        0.1190
     15  H2         8.1100    4.7700    7.4110 H       1  TRP1        0.1190
     16  C         10.7340    5.6750    6.5890 C.2     1  TRP1        0.3220
     17  O         10.8840    6.5220    5.7150 O.2     1  TRP1       -0.2492
     18  OXT       11.4140    4.5060    6.5750 O.3     1  TRP1       -0.4795
     19  HXT       11.2970    3.9710    7.3880 H       1  TRP1        0.2951
     20 H          10.8647    7.1302   14.3701 H       1  TRP1        0.0618
     21 H          10.1913    9.4392   14.5423 H       1  TRP1        0.0618
     22 H           9.6546   10.7305   12.5427 H       1  TRP1        0.0638
     23 H          11.0002    6.0423   12.2005 H       1  TRP1        0.0624
     24 H           9.8390    8.6784    8.0240 H       1  TRP1        0.0810
     25 H          11.6589    6.0439    8.8411 H       1  TRP1        0.0334
     26 H          10.3331    5.3481    9.7911 H       1  TRP1        0.0334
     27 H           9.1791    6.7064    7.6350 H       1  TRP1        0.0577
@<TRIPOS>BOND
     1    17    16    2
     2    18    16    1
     3    18    19    1
     4    16    12    1
     5    15    13    1
     6    14    13    1
     7    12    13    1
     8    12    11    1
     9     8     7   ar
    10     8     9   ar
    11    11     7    1
    12     7     5   ar
    13    10     9    1
    14     9     4   ar
    15     5     4   ar
    16     5     6   ar
    17     4     3   ar
    18     6     1   ar
    19     3     2   ar
    20     1     2   ar
    21     1    20    1
    22     2    21    1
    23     3    22    1
    24     6    23    1
    25     8    24    1
    26    11    25    1
    27    11    26    1
    28    12    27    1
@<TRIPOS>MOLECULE
=
 27 28 0 0 0
SMALL
GASTEIGER

@<TRIPOS>ATOM
      1  CZ3        9.9430    9.6250   12.3400 C.ar    1  TRP1       -0.0611
      2  CH2       10.3530    8.6130   13.2040 C.ar    1  TRP1       -0.0598
      3  CZ2       10.6980    7.3480   12.7220 C.ar    1  TRP1       -0.0378
      4  CE2       10.6230    7.1390   11.3390 C.ar    1  TRP1        0.0467
      5  CD2       10.2250    8.1330   10.4460 C.ar    1  TRP1        0.0029
      6  CE3        9.8740    9.3990   10.9600 C.ar    1  TRP1       -0.0523
      7  CG        10.2940    7.5780    9.1280 C.ar    1  TRP1       -0.0204
      8  CD1       10.7040    6.2670    9.2680 C.ar    1  TRP1        0.0060
      9  NE1       10.8870    6.0100   10.6000 N.ar    1  TRP1       -0.3604
     10  HE1       11.1800    5.1240   10.9890 H       1  TRP1        0.1653
     11  CB        10.0030    8.2850    7.8360 C.3     1  TRP1       -0.0001
     12  CA        11.2450    8.4440    6.9460 C.3     1  TRP1        0.1073
     13  N         12.1820    9.4260    7.5570 N.3     1  TRP1       -0.3181
     14  H1        12.0250   10.3290    7.0940 H       1  TRP1        0.1190
     15  H2        13.1310    9.1780    7.2660 H       1  TRP1        0.1190
     16  C         10.8520    8.9260    5.5380 C.2     1  TRP1        0.3220
     17  O         10.0190    8.3650    4.8350 O.2     1  TRP1       -0.2492
     18  OXT       11.4780   10.0560    5.1400 O.3     1  TRP1       -0.4795
     19  HXT       11.2350   10.3470    4.2370 H       1  TRP1        0.2951
     20 H           9.6877   10.5498   12.7202 H       1  TRP1        0.0618
     21 H          10.4029    8.8006   14.2176 H       1  TRP1        0.0618
     22 H          10.9971    6.5952   13.3614 H       1  TRP1        0.0638
     23 H           9.5689   10.1523   10.3241 H       1  TRP1        0.0624
     24 H          10.8481    5.5946    8.4985 H       1  TRP1        0.0810
     25 H           9.2677    7.7237    7.2982 H       1  TRP1        0.0334
     26 H           9.6559    9.2674    8.0797 H       1  TRP1        0.0334
     27 H          11.7218    7.4896    6.8636 H       1  TRP1        0.0577
@<TRIPOS>BOND
     1    19    18    1
     2    17    16    2
     3    18    16    1
     4    16    12    1
     5    12    13    1
     6    12    11    1
     7    14    13    1
     8    15    13    1
     9    11     7    1
    10     7     8   ar
    11     7     5   ar
    12     8     9   ar
    13     5     6   ar
    14     5     4   ar
    15     9    10    1
    16     9     4   ar
    17     6     1   ar
    18     4     3   ar
    19     1     2   ar
    20     3     2   ar
    21     1    20    1
    22     2    21    1
    23     3    22    1
    24     6    23    1
    25     8    24    1
    26    11    25    1
    27    11    26    1
    28    12    27    1
@<TRIPOS>MOLECULE
=
 27 28 0 0 0
SMALL
GASTEIGER

@<TRIPOS>ATOM
      1  CZ3       13.8470    8.2620    7.3790 C.ar    1  TRP1       -0.0611
      2  CH2       13.6520    7.0410    6.7400 C.ar    1  TRP1       -0.0598
      3  CZ2       12.8240    6.0610    7.2940 C.ar    1  TRP1       -0.0378
      4  CE2       12.1960    6.3550    8.5100 C.ar    1  TRP1        0.0467
      5  CD2       12.3630    7.5720    9.1710 C.ar    1  TRP1        0.0029
      6  CE3       13.2100    8.5400    8.5940 C.ar    1  TRP1       -0.0523
      7  CG        11.5560    7.5320   10.3530 C.ar    1  TRP1       -0.0204
      8  CD1       10.9510    6.2910   10.3820 C.ar    1  TRP1        0.0060
      9  NE1       11.3510    5.5890    9.2770 N.ar    1  TRP1       -0.3604
     10  HE1       11.0650    4.6450    9.0500 H       1  TRP1        0.1653
     11  CB        11.3780    8.6310   11.3600 C.3     1  TRP1       -0.0001
     12  CA         9.9080    8.8600   11.7430 C.3     1  TRP1        0.1073
     13  N          9.3800   10.0570   11.0340 N.3     1  TRP1       -0.3181
     14  H1        10.1610   10.4770   10.5180 H       1  TRP1        0.1190
     15  H2         9.1580   10.7670   11.7370 H       1  TRP1        0.1190
     16  C          9.7640    9.0650   13.2620 C.2     1  TRP1        0.3220
     17  O         10.5290    8.5840   14.0900 O.2     1  TRP1       -0.2492
     18  OXT        8.7310    9.8610   13.6220 O.3     1  TRP1       -0.4795
     19  HXT        8.6860   10.0420   14.5840 H       1  TRP1        0.2951
     20 H          14.4668    8.9688    6.9532 H       1  TRP1        0.0618
     21 H          14.1266    6.8564    5.8424 H       1  TRP1        0.0618
     22 H          12.6807    5.1536    6.8238 H       1  TRP1        0.0638
     23 H          13.3593    9.4467    9.0638 H       1  TRP1        0.0624
     24 H          10.3067    5.9506   11.1127 H       1  TRP1        0.0810
     25 H          11.7685    9.5380   10.9479 H       1  TRP1        0.0334
     26 H          11.8991    8.3397   12.2480 H       1  TRP1        0.0334
     27 H           9.3493    7.9937   11.4563 H       1  TRP1        0.0577
@<TRIPOS>BOND
     1     2     3   ar
     2     2     1   ar
     3     3     4   ar
     4     1     6   ar
     5     4     5   ar
     6     4     9   ar
     7     6     5   ar
     8    10     9    1
     9     5     7   ar
    10     9     8   ar
    11     7     8   ar
    12     7    11    1
    13    14    13    1
    14    13    15    1
    15    13    12    1
    16    11    12    1
    17    12    16    1
    18    16    18    1
    19    16    17    2
    20    18    19    1
    21     1    20    1
    22     2    21    1
    23     3    22    1
    24     6    23    1
    25     8    24    1
    26    11    25    1
    27    11    26    1
    28    12    27    1
@<TRIPOS>MOLECULE
=
 27 28 0 0 0
SMALL
GASTEIGER

@<TRIPOS>ATOM
      1  CZ3        8.0620   17.3980   15.7980 C.ar    1  TRP1       -0.0611
      2  CH2        7.7270   17.6730   17.1220 C.ar    1  TRP1       -0.0598
      3  CZ2        7.3770   16.6480   18.0050 C.ar    1  TRP1       -0.0378
      4  CE2        7.3810   15.3380   17.5120 C.ar    1  TRP1        0.0467
      5  CD2        7.7200   15.0280   16.1960 C.ar    1  TRP1        0.0029
      6  CE3        8.0620   16.0820   15.3230 C.ar    1  TRP1       -0.0523
      7  CG         7.6440   13.6050   16.0570 C.ar    1  TRP1       -0.0204
      8  CD1        7.2400   13.1060   17.2790 C.ar    1  TRP1        0.0060
      9  NE1        7.0740   14.1560   18.1420 N.ar    1  TRP1       -0.3604
     10  HE1        6.7750   14.0780   19.1060 H       1  TRP1        0.1653
     11  CB         7.9640   12.8000   14.8310 C.3     1  TRP1       -0.0001
     12  CA         8.9790   11.6780   15.0980 C.3     1  TRP1        0.1073
     13  N         10.3140   12.2640   15.3980 N.3     1  TRP1       -0.3181
     14  H1        10.5880   12.8340   14.5900 H       1  TRP1        0.1190
     15  H2        11.0000   11.5040   15.3900 H       1  TRP1        0.1190
     16  C          9.0970   10.7450   13.8790 C.2     1  TRP1        0.3220
     17  O          9.4660    9.5780   13.9480 O.2     1  TRP1       -0.2492
     18  OXT        8.7200   11.3080   12.7080 O.3     1  TRP1       -0.4795
     19  HXT        8.8110   10.7120   11.9350 H       1  TRP1        0.2951
     20 H           8.3123   18.1715   15.1623 H       1  TRP1        0.0618
     21 H           7.7375   18.6494   17.4561 H       1  TRP1        0.0618
     22 H           7.1247   16.8496   18.9852 H       1  TRP1        0.0638
     23 H           8.3104   15.8838   14.3411 H       1  TRP1        0.0624
     24 H           7.0887   12.1103   17.5040 H       1  TRP1        0.0810
     25 H           7.0592   12.3614   14.4653 H       1  TRP1        0.0334
     26 H           8.4025   13.4651   14.1167 H       1  TRP1        0.0334
     27 H           8.6355   11.1093   15.9368 H       1  TRP1        0.0577
@<TRIPOS>BOND
     1    19    18    1
     2    18    16    1
     3    16    17    2
     4    16    12    1
     5    14    13    1
     6    11    12    1
     7    11     7    1
     8    12    13    1
     9     6     1   ar
    10     6     5   ar
    11    15    13    1
    12     1     2   ar
    13     7     5   ar
    14     7     8   ar
    15     5     4   ar
    16     2     3   ar
    17     8     9   ar
    18     4     3   ar
    19     4     9   ar
    20     9    10    1
    21     1    20    1
    22     2    21    1
    23     3    22    1
    24     6    23    1
    25     8    24    1
    26    11    25    1
    27    11    26    1
    28    12    27    1
