@<TRIPOS>MOLECULE
LIG
 32 34 0 0 0
SMALL
GASTEIGER

@<TRIPOS>ATOM
      1  O5'       15.6660   -2.6010   20.8060 O.3     1  LIG       -0.3924
      2  C5'       15.5900   -2.2250   22.1870 C.3     1  LIG        0.0730
      3  C4'       14.3140   -1.4600   22.5510 C.3     1  LIG        0.1126
      4  O4'       14.2740   -0.1570   21.8840 O.3     1  LIG       -0.3457
      5  C1'       12.8530    0.3070   21.8100 C.3     1  LIG        0.1667
      6   N9       12.8380    0.8470   20.4520 N.ar    1  LIG       -0.2855
      7   C4       12.9100    2.1870   20.1250 C.ar    1  LIG        0.1674
      8   N3       12.8940    3.2340   20.9720 N.ar    1  LIG       -0.2159
      9   C2       12.9350    4.3940   20.3170 C.ar    1  LIG        0.1205
     10   N1       13.0040    4.5750   18.9830 N.ar    1  LIG       -0.2188
     11   C6       13.1050    3.4920   18.1560 C.ar    1  LIG        0.1472
     12   N6       13.3640    3.6790   16.8540 N.pl3   1  LIG       -0.3413
     13   C5       12.9840    2.2130   18.7560 C.ar    1  LIG        0.1473
     14   N7       12.9610    0.9370   18.2150 N.ar    1  LIG       -0.2306
     15   C8       12.8690    0.1430   19.2600 C.ar    1  LIG        0.1004
     16  C2'       11.9990   -0.9010   22.1040 C.3     1  LIG        0.1285
     17  C3'       12.9940   -2.1020   22.0880 C.3     1  LIG        0.1135
     18  O3'       12.5720   -3.1130   22.9840 O.3     1  LIG       -0.3864
     19  O2'       11.3850   -0.7880   23.3890 O.3     1  LIG       -0.3847
     20 H          16.4947   -3.0792   20.6462 H       1  LIG        0.2095
     21 H          16.4316   -1.6045   22.4143 H       1  LIG        0.0584
     22 H          15.5829   -3.1310   22.7563 H       1  LIG        0.0584
     23 H          14.3697   -1.4312   23.6192 H       1  LIG        0.0647
     24 H          12.4821    1.0443   22.4910 H       1  LIG        0.0866
     25 H          12.9113    5.2484   20.8953 H       1  LIG        0.1048
     26 H          13.4385    2.9046   16.2507 H       1  LIG        0.1438
     27 H          13.4797    4.5908   16.5011 H       1  LIG        0.1438
     28 H          12.8250   -0.8862   19.1984 H       1  LIG        0.1030
     29 H          11.2067   -1.0135   21.3937 H       1  LIG        0.0665
     30 H          13.0733   -2.5798   21.1339 H       1  LIG        0.0647
     31 H          12.4810   -2.7387   23.8742 H       1  LIG        0.2100
     32 H          12.0708   -0.6837   24.0670 H       1  LIG        0.2101
@<TRIPOS>BOND
     1    12    11    1
     2    11    13   ar
     3    11    10   ar
     4    14    13   ar
     5    14    15   ar
     6    13     7   ar
     7    10     9   ar
     8    15     6   ar
     9     7     6   ar
    10     7     8   ar
    11     9     8   ar
    12     6     5    1
    13     1     2    1
    14     5     4    1
    15     5    16    1
    16     4     3    1
    17    17    16    1
    18    17     3    1
    19    17    18    1
    20    16    19    1
    21     2     3    1
    22     1    20    1
    23     2    21    1
    24     2    22    1
    25     3    23    1
    26     5    24    1
    27     9    25    1
    28    12    26    1
    29    12    27    1
    30    15    28    1
    31    16    29    1
    32    17    30    1
    33    18    31    1
    34    19    32    1
