@<TRIPOS>MOLECULE
LIG
 32 34 0 0 0
SMALL
GASTEIGER

@<TRIPOS>ATOM
      1 C2         10.0920    1.1260   25.8040 C.ar    1    A1        0.1205
      2 N1          9.0580    0.3940   26.2780 N.ar    1    A1       -0.2188
      3 C6          8.9410   -0.8880   25.8650 C.ar    1    A1        0.1472
      4 C5          9.9130   -1.4060   24.9920 C.ar    1    A1        0.1473
      5 C4         10.9190   -0.5390   24.5990 C.ar    1    A1        0.1674
      6 N3         11.0700    0.7470   24.9590 N.ar    1    A1       -0.2159
      7 N9         11.7220   -1.2820   23.7780 N.ar    1    A1       -0.2855
      8 C8         11.1800   -2.5390   23.7020 C.ar    1    A1        0.1004
      9 N7         10.0890   -2.6540   24.4320 N.ar    1    A1       -0.2306
     10 C1*        12.9360   -0.8190   23.1390 C.3     1    A1        0.1667
     11 C2*        13.5830   -1.8670   22.2300 C.3     1    A1        0.1285
     12 C3*        14.2860   -0.9830   21.2130 C.3     1    A1        0.1135
     13 C4*        13.3430    0.2100   21.0680 C.3     1    A1        0.1126
     14 O4*        12.6260    0.3340   22.3190 O.3     1    A1       -0.3457
     15 O3*        15.5380   -0.5640   21.7980 O.3     1    A1       -0.3864
     16 O2*        14.5190   -2.7130   22.8990 O.3     1    A1       -0.3847
     17 C5*        12.3290    0.0640   19.9270 C.3     1    A1        0.0730
     18 O5*        12.7990   -0.8370   18.9310 O.3     1    A1       -0.3924
     19 N6          7.8770   -1.6400   26.3510 N.pl3   1    A1       -0.3413
     20 H2         10.1375    2.1031   26.1330 H       1    A1        0.1048
     21 H8         11.5798   -3.3057   23.1387 H       1    A1        0.1030
     22 H1*        13.6250   -0.5910   23.9252 H       1    A1        0.0866
     23 H2*        12.8711   -2.5570   21.8275 H       1    A1        0.0665
     24 H3*        14.4902   -1.4526   20.2735 H       1    A1        0.0647
     25 H4*        13.9314    1.0723   20.8332 H       1    A1        0.0647
     26 H3*        15.3687   -0.1358   22.6517 H       1    A1        0.2100
     27 H2*        15.2143   -2.1703   23.3026 H       1    A1        0.2101
     28 H5*1       12.1656    1.0227   19.4808 H       1    A1        0.0584
     29 H5*2       11.4180   -0.3248   20.3319 H       1    A1        0.0584
     30 H5*        13.6258   -0.4986   18.5532 H       1    A1        0.2095
     31 H61         7.2222   -1.2296   26.9610 H       1    A1        0.1438
     32 H62         7.7785   -2.5828   26.0851 H       1    A1        0.1438
@<TRIPOS>BOND
     1     1     2   ar
     2     3     2   ar
     3     3    19    1
     4     4     3   ar
     5     5     6   ar
     6     5     4   ar
     7     6     1   ar
     8     7     5   ar
     9     8     7   ar
    10     8     9   ar
    11     9     4   ar
    12    10     7    1
    13    11    16    1
    14    11    10    1
    15    12    15    1
    16    12    11    1
    17    13    17    1
    18    13    12    1
    19    13    14    1
    20    14    10    1
    21    18    17    1
    22     1    20    1
    23     8    21    1
    24    10    22    1
    25    11    23    1
    26    12    24    1
    27    13    25    1
    28    15    26    1
    29    16    27    1
    30    17    28    1
    31    17    29    1
    32    18    30    1
    33    19    31    1
    34    19    32    1
