@<TRIPOS>MOLECULE
LIG
 32 34 0 0 0
SMALL
GASTEIGER

@<TRIPOS>ATOM
      1  O5'        8.6220   20.5190   35.3750 O.3   353  LIG353     -0.3924
      2  C5'        9.2760   20.0150   36.5430 C.3   353  LIG353      0.0730
      3  C4'        8.3930   19.0390   37.3130 C.3   353  LIG353      0.1126
      4  O4'        7.2280   19.7130   37.8090 O.3   353  LIG353     -0.3457
      5  C3'        7.8630   17.8880   36.4540 C.3   353  LIG353      0.1135
      6  O3'        8.7560   16.7710   36.3720 O.3   353  LIG353     -0.3864
      7  C2'        6.5540   17.5230   37.1310 C.3   353  LIG353      0.1285
      8  O2'        6.9290   16.6110   38.1510 O.3   353  LIG353     -0.3847
      9  C1'        6.1420   18.7850   37.8890 C.3   353  LIG353      0.1667
     10  N9         4.9200   19.2740   37.3940 N.ar  353  LIG353     -0.2855
     11  C8         4.5430   19.3890   36.1080 C.ar  353  LIG353      0.1004
     12  N7         3.2800   19.8290   36.0060 N.ar  353  LIG353     -0.2306
     13  C5         2.8340   19.9040   37.2880 C.ar  353  LIG353      0.1473
     14  C6         1.6200   20.2460   37.8160 C.ar  353  LIG353      0.1472
     15  N6         0.5680   20.5230   37.0410 N.pl3 353  LIG353     -0.3413
     16  N1         1.5020   20.2950   39.1870 N.ar  353  LIG353     -0.2188
     17  C2         2.5860   20.0040   40.0050 C.ar  353  LIG353      0.1205
     18  N3         3.7490   19.6750   39.4650 N.ar  353  LIG353     -0.2159
     19  C4         3.8570   19.6260   38.1290 C.ar  353  LIG353      0.1674
     20 H           9.2131   21.1343   34.9135 H     353  LIG353      0.2095
     21 H           9.5231   20.8364   37.1826 H     353  LIG353      0.0584
     22 H          10.1551   19.4911   36.2306 H     353  LIG353      0.0584
     23 H           9.0183   18.6525   38.0905 H     353  LIG353      0.0647
     24 H           7.7472   18.1772   35.4304 H     353  LIG353      0.0647
     25 H           8.9284   16.4288   37.2631 H     353  LIG353      0.2100
     26 H           5.8064   17.1539   36.4603 H     353  LIG353      0.0665
     27 H           7.6064   17.0167   38.7144 H     353  LIG353      0.2101
     28 H           5.9591   18.5892   38.9249 H     353  LIG353      0.0866
     29 H           5.1484   19.1670   35.3023 H     353  LIG353      0.1030
     30 H           0.6555   20.4871   36.0611 H     353  LIG353      0.1438
     31 H          -0.2949   20.7630   37.4497 H     353  LIG353      0.1438
     32 H           2.4851   20.0442   41.0313 H     353  LIG353      0.1048
@<TRIPOS>BOND
     1     1     2    1
     2    12    11   ar
     3    12    13   ar
     4    11    10   ar
     5     6     5    1
     6     5     7    1
     7     5     3    1
     8     2     3    1
     9    15    14    1
    10     7     9    1
    11     7     8    1
    12    13    14   ar
    13    13    19   ar
    14     3     4    1
    15    10     9    1
    16    10    19   ar
    17     4     9    1
    18    14    16   ar
    19    19    18   ar
    20    16    17   ar
    21    18    17   ar
    22     1    20    1
    23     2    21    1
    24     2    22    1
    25     3    23    1
    26     5    24    1
    27     6    25    1
    28     7    26    1
    29     8    27    1
    30     9    28    1
    31    11    29    1
    32    15    30    1
    33    15    31    1
    34    17    32    1
