@<TRIPOS>MOLECULE
LIG
 16 17 0 0 0
SMALL
GASTEIGER

@<TRIPOS>ATOM
      1  C        -15.4290   32.7700  -28.9280 C.ar    1  UNL1       -0.0611
      2  C        -16.1520   33.8190  -29.4930 C.ar    1  UNL1       -0.0598
      3  C        -16.1200   35.1000  -28.9350 C.ar    1  UNL1       -0.0378
      4  C        -15.3380   35.2880  -27.7890 C.ar    1  UNL1        0.0465
      5  C        -14.6040   34.2580  -27.2010 C.ar    1  UNL1       -0.0004
      6  C        -14.6510   32.9750  -27.7820 C.ar    1  UNL1       -0.0526
      7  C        -13.9380   34.8080  -26.0720 C.ar    1  UNL1       -0.0367
      8  C        -14.2750   36.1420  -25.9950 C.ar    1  UNL1        0.0027
      9  N        -15.1200   36.4200  -27.0360 N.ar    1  UNL1       -0.3606
     10  H        -15.5280   37.3240  -27.2310 H       1  UNL1        0.1653
     11 H         -15.4674   31.8329  -29.3585 H       1  UNL1        0.0618
     12 H         -16.7202   33.6471  -30.3371 H       1  UNL1        0.0618
     13 H         -16.6532   35.8788  -29.3524 H       1  UNL1        0.0638
     14 H         -14.1177   32.1948  -27.3673 H       1  UNL1        0.0624
     15 H         -13.3141   34.2996  -25.4260 H       1  UNL1        0.0638
     16 H         -13.9489   36.8116  -25.2806 H       1  UNL1        0.0807
@<TRIPOS>BOND
     1     2     3   ar
     2     2     1   ar
     3     3     4   ar
     4     1     6   ar
     5     4     5   ar
     6     4     9   ar
     7     6     5   ar
     8    10     9    1
     9     5     7   ar
    10     9     8   ar
    11     7     8   ar
    12     1    11    1
    13     2    12    1
    14     3    13    1
    15     6    14    1
    16     7    15    1
    17     8    16    1
@<TRIPOS>MOLECULE
=
 16 17 0 0 0
SMALL
GASTEIGER

@<TRIPOS>ATOM
      1  C        -14.1360   34.9410  -26.2800 C.ar    1  UNL1       -0.0611
      2  C        -14.7760   36.1170  -26.6670 C.ar    1  UNL1       -0.0598
      3  C        -15.6030   36.1510  -27.7940 C.ar    1  UNL1       -0.0378
      4  C        -15.7610   34.9620  -28.5160 C.ar    1  UNL1        0.0465
      5  C        -15.1340   33.7700  -28.1520 C.ar    1  UNL1       -0.0004
      6  C        -14.3060   33.7610  -27.0130 C.ar    1  UNL1       -0.0526
      7  C        -15.5210   32.7850  -29.1020 C.ar    1  UNL1       -0.0367
      8  C        -16.3630   33.3870  -30.0110 C.ar    1  UNL1        0.0027
      9  N        -16.5010   34.7000  -29.6480 N.ar    1  UNL1       -0.3606
     10  H        -17.0630   35.3840  -30.1350 H       1  UNL1        0.1653
     11 H         -13.5305   34.9403  -25.4443 H       1  UNL1        0.0618
     12 H         -14.6373   36.9765  -26.1129 H       1  UNL1        0.0618
     13 H         -16.0790   37.0199  -28.0827 H       1  UNL1        0.0638
     14 H         -13.8294   32.8932  -26.7218 H       1  UNL1        0.0624
     15 H         -15.2243   31.7966  -29.1091 H       1  UNL1        0.0638
     16 H         -16.8100   32.9299  -30.8211 H       1  UNL1        0.0807
@<TRIPOS>BOND
     1    10     9    1
     2     8     9   ar
     3     8     7   ar
     4     9     4   ar
     5     7     5   ar
     6     4     5   ar
     7     4     3   ar
     8     5     6   ar
     9     3     2   ar
    10     6     1   ar
    11     2     1   ar
    12     1    11    1
    13     2    12    1
    14     3    13    1
    15     6    14    1
    16     7    15    1
    17     8    16    1
@<TRIPOS>MOLECULE
=
 16 17 0 0 0
SMALL
GASTEIGER

@<TRIPOS>ATOM
      1  C        -14.6420   33.2720  -27.7780 C.ar    1  UNL1       -0.0611
      2  C        -15.3850   32.9970  -28.9240 C.ar    1  UNL1       -0.0598
      3  C        -16.1570   33.9880  -29.5390 C.ar    1  UNL1       -0.0378
      4  C        -16.1550   35.2620  -28.9590 C.ar    1  UNL1        0.0465
      5  C        -15.4220   35.5660  -27.8120 C.ar    1  UNL1       -0.0004
      6  C        -14.6520   34.5520  -27.2100 C.ar    1  UNL1       -0.0526
      7  C        -15.6570   36.9370  -27.5150 C.ar    1  UNL1       -0.0367
      8  C        -16.5150   37.4320  -28.4720 C.ar    1  UNL1        0.0027
      9  N        -16.8090   36.4130  -29.3390 N.ar    1  UNL1       -0.3606
     10  H        -17.4170   36.4870  -30.1420 H       1  UNL1        0.1653
     11 H         -14.0785   32.5247  -27.3432 H       1  UNL1        0.0618
     12 H         -15.3654   32.0466  -29.3257 H       1  UNL1        0.0618
     13 H         -16.7075   33.7875  -30.3886 H       1  UNL1        0.0638
     14 H         -14.1014   34.7500  -26.3599 H       1  UNL1        0.0624
     15 H         -15.2566   37.4659  -26.7244 H       1  UNL1        0.0638
     16 H         -16.8727   38.3985  -28.5262 H       1  UNL1        0.0807
@<TRIPOS>BOND
     1    10     9    1
     2     3     4   ar
     3     3     2   ar
     4     9     4   ar
     5     9     8   ar
     6     4     5   ar
     7     2     1   ar
     8     8     7   ar
     9     5     7   ar
    10     5     6   ar
    11     1     6   ar
    12     1    11    1
    13     2    12    1
    14     3    13    1
    15     6    14    1
    16     7    15    1
    17     8    16    1
@<TRIPOS>MOLECULE
=
 16 17 0 0 0
SMALL
GASTEIGER

@<TRIPOS>ATOM
      1  C        -19.7640   39.6190  -30.2480 C.ar    1  UNL1       -0.0611
      2  C        -19.2560   40.8790  -29.9390 C.ar    1  UNL1       -0.0598
      3  C        -18.0460   41.0220  -29.2550 C.ar    1  UNL1       -0.0378
      4  C        -17.3650   39.8540  -28.8930 C.ar    1  UNL1        0.0465
      5  C        -17.8480   38.5790  -29.1880 C.ar    1  UNL1       -0.0004
      6  C        -19.0700   38.4600  -29.8780 C.ar    1  UNL1       -0.0526
      7  C        -16.9070   37.6440  -28.6760 C.ar    1  UNL1       -0.0367
      8  C        -15.8850   38.3570  -28.0880 C.ar    1  UNL1        0.0027
      9  N        -16.1730   39.6890  -28.2250 N.ar    1  UNL1       -0.3606
     10  H        -15.5970   40.4480  -27.8870 H       1  UNL1        0.1653
     11 H         -20.6598   39.5389  -30.7541 H       1  UNL1        0.0618
     12 H         -19.7823   41.7210  -30.2201 H       1  UNL1        0.0618
     13 H         -17.6683   41.9545  -29.0252 H       1  UNL1        0.0638
     14 H         -19.4501   37.5287  -30.1086 H       1  UNL1        0.0624
     15 H         -16.9769   36.6160  -28.7343 H       1  UNL1        0.0638
     16 H         -15.0519   37.9588  -27.6270 H       1  UNL1        0.0807
@<TRIPOS>BOND
     1     1     2   ar
     2     1     6   ar
     3     2     3   ar
     4     6     5   ar
     5     3     4   ar
     6     5     4   ar
     7     5     7   ar
     8     4     9   ar
     9     7     8   ar
    10     9     8   ar
    11     9    10    1
    12     1    11    1
    13     2    12    1
    14     3    13    1
    15     6    14    1
    16     7    15    1
    17     8    16    1
@<TRIPOS>MOLECULE
=
 16 17 0 0 0
SMALL
GASTEIGER

@<TRIPOS>ATOM
      1  C        -15.1600   32.7810  -28.5000 C.ar    1  UNL1       -0.0611
      2  C        -15.1430   31.9580  -27.3760 C.ar    1  UNL1       -0.0598
      3  C        -14.7010   32.4350  -26.1380 C.ar    1  UNL1       -0.0378
      4  C        -14.2760   33.7680  -26.0730 C.ar    1  UNL1        0.0465
      5  C        -14.2810   34.6150  -27.1810 C.ar    1  UNL1       -0.0004
      6  C        -14.7310   34.1120  -28.4170 C.ar    1  UNL1       -0.0526
      7  C        -13.7900   35.8770  -26.7470 C.ar    1  UNL1       -0.0367
      8  C        -13.5000   35.7750  -25.4040 C.ar    1  UNL1        0.0027
      9  N        -13.7970   34.4980  -25.0080 N.ar    1  UNL1       -0.3606
     10  H        -13.6840   34.1360  -24.0720 H       1  UNL1        0.1653
     11 H         -15.4919   32.4065  -29.4026 H       1  UNL1        0.0618
     12 H         -15.4619   30.9800  -27.4584 H       1  UNL1        0.0618
     13 H         -14.6884   31.8277  -25.3037 H       1  UNL1        0.0638
     14 H         -14.7446   34.7174  -29.2527 H       1  UNL1        0.0624
     15 H         -13.6721   36.7183  -27.3329 H       1  UNL1        0.0638
     16 H         -13.1259   36.5265  -24.8037 H       1  UNL1        0.0807
@<TRIPOS>BOND
     1     1     6   ar
     2     1     2   ar
     3     6     5   ar
     4     2     3   ar
     5     5     7   ar
     6     5     4   ar
     7     7     8   ar
     8     3     4   ar
     9     4     9   ar
    10     8     9   ar
    11     9    10    1
    12     1    11    1
    13     2    12    1
    14     3    13    1
    15     6    14    1
    16     7    15    1
    17     8    16    1
@<TRIPOS>MOLECULE
=
 16 17 0 0 0
SMALL
GASTEIGER

@<TRIPOS>ATOM
      1  C        -15.4560   33.4230  -28.8070 C.ar    1  UNL1       -0.0611
      2  C        -14.5810   33.3740  -27.7240 C.ar    1  UNL1       -0.0598
      3  C        -14.3480   34.5030  -26.9330 C.ar    1  UNL1       -0.0378
      4  C        -15.0240   35.6810  -27.2710 C.ar    1  UNL1        0.0465
      5  C        -15.9050   35.7600  -28.3490 C.ar    1  UNL1       -0.0004
      6  C        -16.1250   34.6100  -29.1320 C.ar    1  UNL1       -0.0526
      7  C        -16.4010   37.0930  -28.3890 C.ar    1  UNL1       -0.0367
      8  C        -15.8200   37.7870  -27.3510 C.ar    1  UNL1        0.0027
      9  N        -14.9920   36.9250  -26.6830 N.ar    1  UNL1       -0.3606
     10  H        -14.4340   37.1610  -25.8740 H       1  UNL1        0.1653
     11 H         -15.6129   32.5762  -29.3756 H       1  UNL1        0.0618
     12 H         -14.0970   32.4900  -27.5020 H       1  UNL1        0.0618
     13 H         -13.7013   34.4690  -26.1294 H       1  UNL1        0.0638
     14 H         -16.7715   34.6416  -29.9358 H       1  UNL1        0.0624
     15 H         -17.0749   37.4716  -29.0728 H       1  UNL1        0.0638
     16 H         -15.9801   38.7796  -27.1182 H       1  UNL1        0.0807
@<TRIPOS>BOND
     1     6     1   ar
     2     6     5   ar
     3     1     2   ar
     4     7     5   ar
     5     7     8   ar
     6     5     4   ar
     7     2     3   ar
     8     8     9   ar
     9     4     3   ar
    10     4     9   ar
    11     9    10    1
    12     1    11    1
    13     2    12    1
    14     3    13    1
    15     6    14    1
    16     7    15    1
    17     8    16    1
@<TRIPOS>MOLECULE
=
 16 17 0 0 0
SMALL
GASTEIGER

@<TRIPOS>ATOM
      1  C        -14.5160   36.2830  -26.2870 C.ar    1  UNL1       -0.0611
      2  C        -13.9080   35.2140  -25.6310 C.ar    1  UNL1       -0.0598
      3  C        -13.9760   33.9170  -26.1480 C.ar    1  UNL1       -0.0378
      4  C        -14.6780   33.7330  -27.3450 C.ar    1  UNL1        0.0465
      5  C        -15.2970   34.7840  -28.0240 C.ar    1  UNL1       -0.0004
      6  C        -15.2150   36.0810  -27.4840 C.ar    1  UNL1       -0.0526
      7  C        -15.9050   34.2320  -29.1850 C.ar    1  UNL1       -0.0367
      8  C        -15.6490   32.8790  -29.1910 C.ar    1  UNL1        0.0027
      9  N        -14.9070   32.5890  -28.0760 N.ar    1  UNL1       -0.3606
     10  H        -14.5730   31.6710  -27.8200 H       1  UNL1        0.1653
     11 H         -14.4506   37.2321  -25.8871 H       1  UNL1        0.0618
     12 H         -13.3993   35.3828  -24.7491 H       1  UNL1        0.0618
     13 H         -13.5252   33.1242  -25.6649 H       1  UNL1        0.0638
     14 H         -15.6653   36.8753  -27.9650 H       1  UNL1        0.0624
     15 H         -16.4422   34.7525  -29.8961 H       1  UNL1        0.0638
     16 H         -15.9602   32.2042  -29.9071 H       1  UNL1        0.0807
@<TRIPOS>BOND
     1     8     7   ar
     2     8     9   ar
     3     7     5   ar
     4     9    10    1
     5     9     4   ar
     6     5     6   ar
     7     5     4   ar
     8     6     1   ar
     9     4     3   ar
    10     1     2   ar
    11     3     2   ar
    12     1    11    1
    13     2    12    1
    14     3    13    1
    15     6    14    1
    16     7    15    1
    17     8    16    1
@<TRIPOS>MOLECULE
=
 16 17 0 0 0
SMALL
GASTEIGER

@<TRIPOS>ATOM
      1  C        -18.0240   41.1390  -28.9450 C.ar    1  UNL1       -0.0611
      2  C        -16.8860   40.5680  -28.3770 C.ar    1  UNL1       -0.0598
      3  C        -16.5990   39.2110  -28.5460 C.ar    1  UNL1       -0.0378
      4  C        -17.4960   38.4490  -29.3040 C.ar    1  UNL1        0.0465
      5  C        -18.6420   38.9920  -29.8840 C.ar    1  UNL1       -0.0004
      6  C        -18.9110   40.3620  -29.7000 C.ar    1  UNL1       -0.0526
      7  C        -19.3050   37.9380  -30.5710 C.ar    1  UNL1       -0.0367
      8  C        -18.5610   36.7920  -30.3990 C.ar    1  UNL1        0.0027
      9  N        -17.4710   37.1120  -29.6330 N.ar    1  UNL1       -0.3606
     10  H        -16.7490   36.4660  -29.3460 H       1  UNL1        0.1653
     11 H         -18.2144   42.1439  -28.8077 H       1  UNL1        0.0618
     12 H         -16.2452   41.1572  -27.8227 H       1  UNL1        0.0618
     13 H         -15.7568   38.7861  -28.1275 H       1  UNL1        0.0638
     14 H         -19.7529   40.7888  -30.1172 H       1  UNL1        0.0624
     15 H         -20.1857   38.0177  -31.1030 H       1  UNL1        0.0638
     16 H         -18.7845   35.8590  -30.7791 H       1  UNL1        0.0807
@<TRIPOS>BOND
     1     7     8   ar
     2     7     5   ar
     3     8     9   ar
     4     5     6   ar
     5     5     4   ar
     6     6     1   ar
     7     9    10    1
     8     9     4   ar
     9     4     3   ar
    10     1     2   ar
    11     3     2   ar
    12     1    11    1
    13     2    12    1
    14     3    13    1
    15     6    14    1
    16     7    15    1
    17     8    16    1
@<TRIPOS>MOLECULE
=
 16 17 0 0 0
SMALL
GASTEIGER

@<TRIPOS>ATOM
      1  C        -20.3270   40.4750  -31.1000 C.ar    1  UNL1       -0.0611
      2  C        -19.4940   40.8370  -30.0430 C.ar    1  UNL1       -0.0598
      3  C        -18.6130   39.9160  -29.4690 C.ar    1  UNL1       -0.0378
      4  C        -18.6000   38.6190  -29.9960 C.ar    1  UNL1        0.0465
      5  C        -19.4220   38.2270  -31.0530 C.ar    1  UNL1       -0.0004
      6  C        -20.3010   39.1730  -31.6140 C.ar    1  UNL1       -0.0526
      7  C        -19.1400   36.8580  -31.3180 C.ar    1  UNL1       -0.0367
      8  C        -18.1690   36.4500  -30.4320 C.ar    1  UNL1        0.0027
      9  N        -17.8500   37.5210  -29.6390 N.ar    1  UNL1       -0.3606
     10  H        -17.1640   37.5130  -28.8970 H       1  UNL1        0.1653
     11 H         -20.9688   41.1729  -31.5075 H       1  UNL1        0.0618
     12 H         -19.5282   41.8016  -29.6778 H       1  UNL1        0.0618
     13 H         -17.9954   40.1821  -28.6862 H       1  UNL1        0.0638
     14 H         -20.9201   38.9092  -32.3964 H       1  UNL1        0.0624
     15 H         -19.5841   36.2751  -32.0446 H       1  UNL1        0.0638
     16 H         -17.7552   35.5063  -30.3751 H       1  UNL1        0.0807
@<TRIPOS>BOND
     1     6     1   ar
     2     6     5   ar
     3     7     5   ar
     4     7     8   ar
     5     1     2   ar
     6     5     4   ar
     7     8     9   ar
     8     2     3   ar
     9     4     9   ar
    10     4     3   ar
    11     9    10    1
    12     1    11    1
    13     2    12    1
    14     3    13    1
    15     6    14    1
    16     7    15    1
    17     8    16    1
